3
R0102 1 2 1000
L0301 2 3 1
M0202 3 3 0 0 NMOS L=1e-6 W=1e-6 1e-4 1 0.01 0.3 0.6 0.1e-6
V0003 1 0 1 0 10
.AC LIN 10 10 1000