2
R0102 1 2 4
L0100 1 0 4
V0200 2 0 1 90 10
.AC DEC 100 0.01 100
