4
R0100 1 0 1
E0200 2 0 1 3 1
I0001 0 1 1 45
V0300 3 0 1 135
V0402 4 2 1.4142135 90
.AC DEC 10 0.1 1
