3
R0102 1 2 0.1
L0100 1 0 4
C0203 2 3 0.25
V0300 3 0 1 0 10
.AC DEC 100 0.01 100
