2
R0102 1 2 4
C0100 1 0 0.25
V0200 2 0 1 0 10
.AC DEC 100 0.01 100
